  Page 1                                    Mon Sep 27 01:31:31 2021

  ******************************************************************
  *                           E P A N E T                          *
  *                   Hydraulic and Water Quality                  *
  *                   Analysis for Pipe Networks                   *
  *                         Version 2.2                            *
  ******************************************************************
  
  Analysis begun Mon Sep 27 01:31:31 2021

  Analysis ended Mon Sep 27 01:31:31 2021
