  Page 1                                    Tue Sep 28 08:45:33 2021

  ******************************************************************
  *                           E P A N E T                          *
  *                   Hydraulic and Water Quality                  *
  *                   Analysis for Pipe Networks                   *
  *                         Version 2.2                            *
  ******************************************************************
  
  Analysis begun Tue Sep 28 08:45:33 2021

  Analysis ended Tue Sep 28 08:45:33 2021
